https://github.com/IGME-RIT/graphics-glfw-fluidHydroDynamics